Version 4
SHEET 1 2100 1468
WIRE -720 -64 -720 -80
WIRE -576 -64 -576 -80
WIRE 256 -48 48 -48
WIRE 928 0 720 0
WIRE -720 32 -720 16
WIRE -576 32 -576 16
WIRE 2096 48 1888 48
WIRE 48 80 48 -48
WIRE 128 80 48 80
WIRE 256 96 256 -48
WIRE 256 96 192 96
WIRE 336 96 256 96
WIRE 720 96 720 0
WIRE 784 96 720 96
WIRE -256 112 -336 112
WIRE -112 112 -176 112
WIRE -64 112 -112 112
WIRE 64 112 16 112
WIRE 128 112 64 112
WIRE 928 112 928 0
WIRE 928 112 848 112
WIRE 784 128 704 128
WIRE 1888 144 1888 48
WIRE 1952 144 1888 144
WIRE -112 160 -112 112
WIRE 64 160 64 112
WIRE 2096 160 2096 48
WIRE 2096 160 2016 160
WIRE 1760 176 1680 176
WIRE 1888 176 1840 176
WIRE 1952 176 1888 176
WIRE 928 208 720 208
WIRE 64 256 64 224
WIRE 1760 288 1680 288
WIRE 1888 288 1888 176
WIRE 1888 288 1840 288
WIRE -112 304 -112 224
WIRE 256 304 256 96
WIRE 256 304 -112 304
WIRE 720 304 720 208
WIRE 784 304 720 304
WIRE 928 320 928 208
WIRE 928 320 848 320
WIRE 784 336 704 336
WIRE 1760 400 1680 400
WIRE 1888 400 1888 288
WIRE 1888 400 1840 400
WIRE 256 416 112 416
WIRE 928 416 720 416
WIRE 64 464 64 432
WIRE 720 512 720 416
WIRE 784 512 720 512
WIRE 928 528 928 416
WIRE 928 528 848 528
WIRE 112 544 112 416
WIRE 128 544 112 544
WIRE 784 544 704 544
WIRE 256 560 256 416
WIRE 256 560 192 560
WIRE 336 560 256 560
WIRE -256 576 -336 576
WIRE -112 576 -176 576
WIRE -64 576 -112 576
WIRE 64 576 64 544
WIRE 64 576 0 576
WIRE 128 576 64 576
WIRE -112 624 -112 576
WIRE 64 624 64 576
WIRE 64 736 64 704
WIRE -112 768 -112 688
WIRE 256 768 256 560
WIRE 256 768 -112 768
WIRE 128 1088 96 1088
WIRE 256 1088 208 1088
WIRE 48 1136 48 1104
WIRE 96 1216 96 1088
WIRE 128 1216 96 1216
WIRE 256 1232 256 1088
WIRE 256 1232 192 1232
WIRE 336 1232 256 1232
WIRE -256 1248 -336 1248
WIRE -112 1248 -192 1248
WIRE -64 1248 -112 1248
WIRE 48 1248 48 1216
WIRE 48 1248 0 1248
WIRE 128 1248 48 1248
WIRE -112 1296 -112 1248
WIRE 48 1296 48 1248
WIRE 48 1408 48 1376
WIRE -112 1440 -112 1376
WIRE 256 1440 256 1232
WIRE 256 1440 -112 1440
FLAG -576 -80 Vin
FLAG -720 -80 +5V
FLAG -720 32 0
FLAG -576 32 0
FLAG -336 112 Vin
FLAG 64 256 0
FLAG 160 128 0
FLAG 160 64 +5V
FLAG -336 576 Vin
FLAG 64 736 0
FLAG 160 592 0
FLAG 160 528 +5V
FLAG 64 432 +5V
FLAG -336 1248 Vin
FLAG 160 1264 0
FLAG 160 1200 +5V
FLAG 48 1104 +5V
FLAG 48 1408 0
FLAG 336 1232 TrebleOut
FLAG 1680 400 BassBuf
FLAG 1680 288 MidBuf
FLAG 1680 176 TrebleBuf
FLAG 1984 128 +5V
FLAG 1984 192 0
FLAG 816 80 +5V
FLAG 816 144 0
FLAG 816 288 +5V
FLAG 816 352 0
FLAG 816 496 +5V
FLAG 816 560 0
FLAG 704 128 TrebleOut
FLAG 704 336 MidOut
FLAG 704 544 BassOut
FLAG 928 112 TrebleBuf
FLAG 928 320 MidBuf
FLAG 928 528 BassBuf
SYMBOL res -160 96 R90
WINDOW 0 0 56 VBottom 2
WINDOW 3 32 56 VTop 2
SYMATTR InstName R1
SYMATTR Value 10k
SYMBOL res 32 96 R90
WINDOW 0 0 56 VBottom 2
WINDOW 3 32 56 VTop 2
SYMATTR InstName R2
SYMATTR Value 10k
SYMBOL cap -128 160 R0
SYMATTR InstName C1
SYMATTR Value 50n
SYMBOL cap 48 160 R0
SYMATTR InstName C2
SYMATTR Value 50n
SYMBOL voltage -720 -80 R0
WINDOW 123 0 0 Left 0
WINDOW 39 0 0 Left 0
SYMATTR InstName V1
SYMATTR Value 5
SYMBOL voltage -576 -80 R0
WINDOW 123 24 44 Left 2
WINDOW 39 0 0 Left 0
SYMATTR InstName V2
SYMATTR Value ""
SYMATTR Value2 AC 1
SYMBOL OpAmps\\UniversalOpAmp2 160 560 R0
SYMATTR InstName U2
SYMBOL res 80 720 R180
WINDOW 0 36 76 Left 2
WINDOW 3 36 40 Left 2
SYMATTR InstName R4
SYMATTR Value 20k
SYMBOL cap -96 688 R180
WINDOW 0 24 56 Left 2
WINDOW 3 24 8 Left 2
SYMATTR InstName C3
SYMATTR Value 50n
SYMBOL cap 0 560 R90
WINDOW 0 0 32 VBottom 2
WINDOW 3 32 32 VTop 2
SYMATTR InstName C4
SYMATTR Value 3n
SYMBOL res 80 560 R180
WINDOW 0 36 76 Left 2
WINDOW 3 36 40 Left 2
SYMATTR InstName R7
SYMATTR Value 20k
SYMBOL OpAmps\\UniversalOpAmp2 160 1232 R0
SYMATTR InstName U5
SYMBOL res -96 1392 R180
WINDOW 0 36 76 Left 2
WINDOW 3 36 40 Left 2
SYMATTR InstName R8
SYMATTR Value 10k
SYMBOL res 64 1392 R180
WINDOW 0 36 76 Left 2
WINDOW 3 36 40 Left 2
SYMATTR InstName R9
SYMATTR Value 20k
SYMBOL cap -192 1232 R90
WINDOW 0 0 32 VBottom 2
WINDOW 3 32 32 VTop 2
SYMATTR InstName C5
SYMATTR Value 3n
SYMBOL cap 0 1232 R90
WINDOW 0 0 32 VBottom 2
WINDOW 3 32 32 VTop 2
SYMATTR InstName C6
SYMATTR Value 3n
SYMBOL res 224 1072 R90
WINDOW 0 0 56 VBottom 2
WINDOW 3 32 56 VTop 2
SYMATTR InstName R10
SYMATTR Value 10k
SYMBOL res 64 1232 R180
WINDOW 0 36 76 Left 2
WINDOW 3 36 40 Left 2
SYMATTR InstName R12
SYMATTR Value 20k
SYMBOL OpAmps\\UniversalOpAmp2 1984 160 R0
SYMATTR InstName U3
SYMBOL res 1856 160 R90
WINDOW 0 0 56 VBottom 2
WINDOW 3 32 56 VTop 2
SYMATTR InstName R11
SYMATTR Value 1k
SYMBOL res 1856 272 R90
WINDOW 0 0 56 VBottom 2
WINDOW 3 32 56 VTop 2
SYMATTR InstName R13
SYMATTR Value 1k
SYMBOL res 1856 384 R90
WINDOW 0 0 56 VBottom 2
WINDOW 3 32 56 VTop 2
SYMATTR InstName R14
SYMATTR Value 1k
SYMBOL OpAmps\\UniversalOpAmp2 816 112 R0
SYMATTR InstName U4
SYMBOL OpAmps\\UniversalOpAmp2 816 320 R0
SYMATTR InstName U6
SYMBOL OpAmps\\UniversalOpAmp2 816 528 R0
SYMATTR InstName U7
SYMBOL OpAmps\\UniversalOpAmp 160 96 R0
SYMATTR InstName U1
SYMBOL res -160 560 R90
WINDOW 0 0 56 VBottom 2
WINDOW 3 32 56 VTop 2
SYMATTR InstName R3
SYMATTR Value 10k
TEXT -714 154 Left 2 !.ac dec 300 1 30k
